! UNIDADES CONSUMIDORAS DE BAIXA TENSAO NO TRANSFORMADOR DE DISTRIBUICAO
! Tranformador de Distribuicao: 500594
New Load.1567 Bus1=106977B1500594.3.1.0 Phases=2 model=8 ZIPV=[0.5 0 0.5 1 0 0] Kv=0.220 kW=13.92 PF= 0.92 conn=wye
! Tranformador de Distribuicao: 500594
New Load.796015 Bus1=106977B1500594.2.3.0 Phases=2 model=8 ZIPV=[0.5 0 0.5 1 0 0] Kv=0.220 kW=4.0 PF= 0.92 conn=wye
! Tranformador de Distribuicao: 500594
New Load.840426 Bus1=106977B1500594.1.2.3.0 Phases=3 model=8 ZIPV=[0.5 0 0.5 1 0 0] Kv=0.220 kW=15.0 PF= 0.92 conn=wye
! Tranformador de Distribuicao: 500594
New Load.1289904 Bus1=106977B1500594.1.2.3.0 Phases=3 model=8 ZIPV=[0.5 0 0.5 1 0 0] Kv=0.220 kW=14.42 PF= 0.92 conn=wye
! Tranformador de Distribuicao: 500594
New Load.1870882 Bus1=106977B1500594.3.1.0 Phases=2 model=8 ZIPV=[0.5 0 0.5 1 0 0] Kv=0.220 kW=6.88 PF= 0.92 conn=wye
! Tranformador de Distribuicao: 500594
New Load.1895851 Bus1=106977B1500594.1.2.3.0 Phases=3 model=8 ZIPV=[0.5 0 0.5 1 0 0] Kv=0.220 kW=9.44 PF= 0.92 conn=wye
! Tranformador de Distribuicao: 500594
New Load.2570625 Bus1=106977B1500594.1.2.3.0 Phases=3 model=8 ZIPV=[0.5 0 0.5 1 0 0] Kv=0.220 kW=15.9 PF= 0.92 conn=wye
! Tranformador de Distribuicao: 500594
New Load.2597861 Bus1=106977B1500594.1.2.3.0 Phases=3 model=8 ZIPV=[0.5 0 0.5 1 0 0] Kv=0.220 kW=10.85 PF= 0.92 conn=wye
! Tranformador de Distribuicao: 500594
New Load.2811318 Bus1=106977B1500594.1.2.3.0 Phases=3 model=8 ZIPV=[0.5 0 0.5 1 0 0] Kv=0.220 kW=47.63 PF= 0.92 conn=wye
! Tranformador de Distribuicao: 500594
New Load.3008237 Bus1=106977B1500594.1.2.3.0 Phases=3 model=8 ZIPV=[0.5 0 0.5 1 0 0] Kv=0.220 kW=12.0 PF= 0.92 conn=wye
! Tranformador de Distribuicao: 500594
New Load.3171191 Bus1=106977B1500594.1.2.3.0 Phases=3 model=8 ZIPV=[0.5 0 0.5 1 0 0] Kv=0.220 kW=47.75 PF= 0.92 conn=wye
! Tranformador de Distribuicao: 500594
New Load.3329393 Bus1=106977B1500594.1.2.3.0 Phases=3 model=8 ZIPV=[0.5 0 0.5 1 0 0] Kv=0.220 kW=5.0 PF= 0.92 conn=wye
! Tranformador de Distribuicao: 500594
New Load.3366370 Bus1=106977B1500594.1.2.3.0 Phases=3 model=8 ZIPV=[0.5 0 0.5 1 0 0] Kv=0.220 kW=14.38 PF= 0.92 conn=wye
! Tranformador de Distribuicao: 500594
New Load.4154318 Bus1=106977B1500594.1.2.3.0 Phases=3 model=8 ZIPV=[0.5 0 0.5 1 0 0] Kv=0.220 kW=69.87 PF= 0.92 conn=wye
! Tranformador de Distribuicao: 500594
New Load.4243436 Bus1=106977B1500594.1.2.3.0 Phases=3 model=8 ZIPV=[0.5 0 0.5 1 0 0] Kv=0.220 kW=12.87 PF= 0.92 conn=wye
! Tranformador de Distribuicao: 500594
New Load.4243920 Bus1=106977B1500594.3.1.0 Phases=2 model=8 ZIPV=[0.5 0 0.5 1 0 0] Kv=0.220 kW=5.0 PF= 0.92 conn=wye
! Tranformador de Distribuicao: 500594
New Load.4670120 Bus1=106977B1500594.1.2.3.0 Phases=3 model=8 ZIPV=[0.5 0 0.5 1 0 0] Kv=0.220 kW=14.18 PF= 0.92 conn=wye
! Tranformador de Distribuicao: 500594
New Load.4785515 Bus1=106977B1500594.2.0 Phases=1 model=8 ZIPV=[0.5 0 0.5 1 0 0] Kv=0.127 kW=2.0 PF= 0.92 conn=wye
! Tranformador de Distribuicao: 500594
New Load.4816789 Bus1=106977B1500594.1.2.3.0 Phases=3 model=8 ZIPV=[0.5 0 0.5 1 0 0] Kv=0.220 kW=1.84 PF= 0.92 conn=wye
! Tranformador de Distribuicao: 500594
New Load.5040784 Bus1=106977B1500594.1.2.3.0 Phases=3 model=8 ZIPV=[0.5 0 0.5 1 0 0] Kv=0.220 kW=14.0 PF= 0.92 conn=wye
! Tranformador de Distribuicao: 500594
New Load.5092593 Bus1=106977B1500594.1.0 Phases=1 model=8 ZIPV=[0.5 0 0.5 1 0 0] Kv=0.220 kW=15.02 PF= 0.92 conn=wye
! Tranformador de Distribuicao: 500594
New Load.5318096 Bus1=106977B1500594.2.0 Phases=1 model=8 ZIPV=[0.5 0 0.5 1 0 0] Kv=0.127 kW=2.0 PF= 0.92 conn=wye
! Tranformador de Distribuicao: 500594
New Load.5533174 Bus1=106977B1500594.3.1.0 Phases=2 model=8 ZIPV=[0.5 0 0.5 1 0 0] Kv=0.220 kW=13.92 PF= 0.92 conn=wye
! Tranformador de Distribuicao: 500594
New Load.6048404 Bus1=106977B1500594.3.1.0 Phases=2 model=8 ZIPV=[0.5 0 0.5 1 0 0] Kv=0.220 kW=6.88 PF= 0.92 conn=wye
! Tranformador de Distribuicao: 500594
New Load.6058372 Bus1=106977B1500594.1.2.3.0 Phases=3 model=8 ZIPV=[0.5 0 0.5 1 0 0] Kv=0.220 kW=14.42 PF= 0.92 conn=wye
! Tranformador de Distribuicao: 500594
New Load.6065560 Bus1=106977B1500594.1.2.3.0 Phases=3 model=8 ZIPV=[0.5 0 0.5 1 0 0] Kv=0.220 kW=5.0 PF= 0.92 conn=wye
! Tranformador de Distribuicao: 500594
New Load.6079017 Bus1=106977B1500594.3.0 Phases=1 model=8 ZIPV=[0.5 0 0.5 1 0 0] Kv=0.127 kW=2.0 PF= 0.92 conn=wye
! Tranformador de Distribuicao: F13822
New Load.75942 Bus1=107071B1F13822.3.0 Phases=1 model=8 ZIPV=[0.5 0 0.5 1 0 0] Kv=0.127 kW=1.03 PF= 0.92 conn=wye
! Tranformador de Distribuicao: F13822
New Load.80960 Bus1=107071B1F13822.2.0 Phases=1 model=8 ZIPV=[0.5 0 0.5 1 0 0] Kv=0.127 kW=2.0 PF= 0.92 conn=wye
! Tranformador de Distribuicao: F13822
New Load.140234 Bus1=107071B1F13822.1.0 Phases=1 model=8 ZIPV=[0.5 0 0.5 1 0 0] Kv=0.127 kW=4.0 PF= 0.92 conn=wye
! Tranformador de Distribuicao: F13822
New Load.156644 Bus1=107071B1F13822.3.0 Phases=1 model=8 ZIPV=[0.5 0 0.5 1 0 0] Kv=0.127 kW=3.5 PF= 0.92 conn=wye
! Tranformador de Distribuicao: F13822
New Load.694346 Bus1=107071B1F13822.3.0 Phases=1 model=8 ZIPV=[0.5 0 0.5 1 0 0] Kv=0.127 kW=3.0 PF= 0.92 conn=wye
! Tranformador de Distribuicao: F13822
New Load.695869 Bus1=107071B1F13822.1.2.3.0 Phases=3 model=8 ZIPV=[0.5 0 0.5 1 0 0] Kv=0.220 kW=3.0 PF= 0.92 conn=wye
! Tranformador de Distribuicao: F13822
New Load.792872 Bus1=107071B1F13822.3.0 Phases=1 model=8 ZIPV=[0.5 0 0.5 1 0 0] Kv=0.127 kW=2.0 PF= 0.92 conn=wye
! Tranformador de Distribuicao: F13822
New Load.800967 Bus1=107071B1F13822.1.0 Phases=1 model=8 ZIPV=[0.5 0 0.5 1 0 0] Kv=0.220 kW=10.13 PF= 0.92 conn=wye
! Tranformador de Distribuicao: F13822
New Load.916425 Bus1=107071B1F13822.1.0 Phases=1 model=8 ZIPV=[0.5 0 0.5 1 0 0] Kv=0.127 kW=1.79 PF= 0.92 conn=wye
! Tranformador de Distribuicao: F13822
New Load.1270656 Bus1=107071B1F13822.3.0 Phases=1 model=8 ZIPV=[0.5 0 0.5 1 0 0] Kv=0.127 kW=7.0 PF= 0.92 conn=wye
! Tranformador de Distribuicao: F13822
New Load.1531199 Bus1=107071B1F13822.3.0 Phases=1 model=8 ZIPV=[0.5 0 0.5 1 0 0] Kv=0.127 kW=5.0 PF= 0.92 conn=wye
! Tranformador de Distribuicao: F13822
New Load.1780182 Bus1=107071B1F13822.1.2.3.0 Phases=3 model=8 ZIPV=[0.5 0 0.5 1 0 0] Kv=0.220 kW=3.0 PF= 0.92 conn=wye
! Tranformador de Distribuicao: F13822
New Load.1870642 Bus1=107071B1F13822.1.0 Phases=1 model=8 ZIPV=[0.5 0 0.5 1 0 0] Kv=0.127 kW=4.0 PF= 0.92 conn=wye
! Tranformador de Distribuicao: F13822
New Load.1889574 Bus1=107071B1F13822.2.0 Phases=1 model=8 ZIPV=[0.5 0 0.5 1 0 0] Kv=0.127 kW=3.0 PF= 0.92 conn=wye
! Tranformador de Distribuicao: F13822
New Load.2071872 Bus1=107071B1F13822.1.0 Phases=1 model=8 ZIPV=[0.5 0 0.5 1 0 0] Kv=0.127 kW=3.0 PF= 0.92 conn=wye
! Tranformador de Distribuicao: F13822
New Load.2262772 Bus1=107071B1F13822.2.0 Phases=1 model=8 ZIPV=[0.5 0 0.5 1 0 0] Kv=0.127 kW=1.0 PF= 0.92 conn=wye
! Tranformador de Distribuicao: F13822
New Load.2674297 Bus1=107071B1F13822.3.0 Phases=1 model=8 ZIPV=[0.5 0 0.5 1 0 0] Kv=0.127 kW=2.0 PF= 0.92 conn=wye
! Tranformador de Distribuicao: F13822
New Load.2864002 Bus1=107071B1F13822.2.0 Phases=1 model=8 ZIPV=[0.5 0 0.5 1 0 0] Kv=0.127 kW=4.0 PF= 0.92 conn=wye
! Tranformador de Distribuicao: F13822
New Load.2891555 Bus1=107071B1F13822.3.0 Phases=1 model=8 ZIPV=[0.5 0 0.5 1 0 0] Kv=0.127 kW=3.6 PF= 0.92 conn=wye
! Tranformador de Distribuicao: F13822
New Load.3057797 Bus1=107071B1F13822.1.0 Phases=1 model=8 ZIPV=[0.5 0 0.5 1 0 0] Kv=0.127 kW=2.0 PF= 0.92 conn=wye
! Tranformador de Distribuicao: F13822
New Load.3228475 Bus1=107071B1F13822.1.0 Phases=1 model=8 ZIPV=[0.5 0 0.5 1 0 0] Kv=0.127 kW=7.54 PF= 0.92 conn=wye
! Tranformador de Distribuicao: F13822
New Load.3258125 Bus1=107071B1F13822.1.0 Phases=1 model=8 ZIPV=[0.5 0 0.5 1 0 0] Kv=0.127 kW=4.56 PF= 0.92 conn=wye
! Tranformador de Distribuicao: F13822
New Load.3337057 Bus1=107071B1F13822.3.0 Phases=1 model=8 ZIPV=[0.5 0 0.5 1 0 0] Kv=0.127 kW=2.0 PF= 0.92 conn=wye
! Tranformador de Distribuicao: F13822
New Load.3448520 Bus1=107071B1F13822.3.0 Phases=1 model=8 ZIPV=[0.5 0 0.5 1 0 0] Kv=0.127 kW=2.0 PF= 0.92 conn=wye
! Tranformador de Distribuicao: F13822
New Load.3472898 Bus1=107071B1F13822.1.0 Phases=1 model=8 ZIPV=[0.5 0 0.5 1 0 0] Kv=0.127 kW=2.0 PF= 0.92 conn=wye
! Tranformador de Distribuicao: F13822
New Load.3528027 Bus1=107071B1F13822.1.0 Phases=1 model=8 ZIPV=[0.5 0 0.5 1 0 0] Kv=0.127 kW=2.0 PF= 0.92 conn=wye
! Tranformador de Distribuicao: F13822
New Load.3574236 Bus1=107071B1F13822.3.0 Phases=1 model=8 ZIPV=[0.5 0 0.5 1 0 0] Kv=0.127 kW=1.49 PF= 0.92 conn=wye
! Tranformador de Distribuicao: F13822
New Load.3717357 Bus1=107071B1F13822.3.0 Phases=1 model=8 ZIPV=[0.5 0 0.5 1 0 0] Kv=0.127 kW=4.5 PF= 0.92 conn=wye
! Tranformador de Distribuicao: F13822
New Load.3733879 Bus1=107071B1F13822.1.0 Phases=1 model=8 ZIPV=[0.5 0 0.5 1 0 0] Kv=0.127 kW=4.0 PF= 0.92 conn=wye
! Tranformador de Distribuicao: F13822
New Load.3849356 Bus1=107071B1F13822.3.0 Phases=1 model=8 ZIPV=[0.5 0 0.5 1 0 0] Kv=0.127 kW=2.0 PF= 0.92 conn=wye
! Tranformador de Distribuicao: F13822
New Load.4239670 Bus1=107071B1F13822.2.0 Phases=1 model=8 ZIPV=[0.5 0 0.5 1 0 0] Kv=0.127 kW=1.0 PF= 0.92 conn=wye
! Tranformador de Distribuicao: F13822
New Load.4344833 Bus1=107071B1F13822.2.0 Phases=1 model=8 ZIPV=[0.5 0 0.5 1 0 0] Kv=0.127 kW=2.0 PF= 0.92 conn=wye
! Tranformador de Distribuicao: F13822
New Load.4355549 Bus1=107071B1F13822.2.0 Phases=1 model=8 ZIPV=[0.5 0 0.5 1 0 0] Kv=0.127 kW=5.0 PF= 0.92 conn=wye
! Tranformador de Distribuicao: F13822
New Load.4476597 Bus1=107071B1F13822.1.0 Phases=1 model=8 ZIPV=[0.5 0 0.5 1 0 0] Kv=0.127 kW=7.0 PF= 0.92 conn=wye
! Tranformador de Distribuicao: F13822
New Load.4490110 Bus1=107071B1F13822.1.2.3.0 Phases=3 model=8 ZIPV=[0.5 0 0.5 1 0 0] Kv=0.220 kW=3.0 PF= 0.92 conn=wye
! Tranformador de Distribuicao: F13822
New Load.4541728 Bus1=107071B1F13822.2.0 Phases=1 model=8 ZIPV=[0.5 0 0.5 1 0 0] Kv=0.127 kW=1.0 PF= 0.92 conn=wye
! Tranformador de Distribuicao: F13822
New Load.4833608 Bus1=107071B1F13822.2.0 Phases=1 model=8 ZIPV=[0.5 0 0.5 1 0 0] Kv=0.127 kW=3.85 PF= 0.92 conn=wye
! Tranformador de Distribuicao: F13822
New Load.4909143 Bus1=107071B1F13822.1.0 Phases=1 model=8 ZIPV=[0.5 0 0.5 1 0 0] Kv=0.127 kW=2.0 PF= 0.92 conn=wye
! Tranformador de Distribuicao: F13822
New Load.5021200 Bus1=107071B1F13822.2.0 Phases=1 model=8 ZIPV=[0.5 0 0.5 1 0 0] Kv=0.127 kW=3.0 PF= 0.92 conn=wye
! Tranformador de Distribuicao: F13822
New Load.5077415 Bus1=107071B1F13822.2.0 Phases=1 model=8 ZIPV=[0.5 0 0.5 1 0 0] Kv=0.127 kW=1.0 PF= 0.92 conn=wye
! Tranformador de Distribuicao: F13822
New Load.5079356 Bus1=107071B1F13822.1.0 Phases=1 model=8 ZIPV=[0.5 0 0.5 1 0 0] Kv=0.127 kW=7.95 PF= 0.92 conn=wye
! Tranformador de Distribuicao: F13822
New Load.5167594 Bus1=107071B1F13822.3.0 Phases=1 model=8 ZIPV=[0.5 0 0.5 1 0 0] Kv=0.127 kW=2.0 PF= 0.92 conn=wye
! Tranformador de Distribuicao: F13822
New Load.5252478 Bus1=107071B1F13822.3.0 Phases=1 model=8 ZIPV=[0.5 0 0.5 1 0 0] Kv=0.127 kW=3.0 PF= 0.92 conn=wye
! Tranformador de Distribuicao: F13822
New Load.5276016 Bus1=107071B1F13822.1.0 Phases=1 model=8 ZIPV=[0.5 0 0.5 1 0 0] Kv=0.127 kW=2.0 PF= 0.92 conn=wye
! Tranformador de Distribuicao: F13822
New Load.5354481 Bus1=107071B1F13822.3.0 Phases=1 model=8 ZIPV=[0.5 0 0.5 1 0 0] Kv=0.127 kW=4.16 PF= 0.92 conn=wye
! Tranformador de Distribuicao: F13822
New Load.5526710 Bus1=107071B1F13822.3.0 Phases=1 model=8 ZIPV=[0.5 0 0.5 1 0 0] Kv=0.127 kW=4.16 PF= 0.92 conn=wye
! Tranformador de Distribuicao: F13822
New Load.5612174 Bus1=107071B1F13822.1.0 Phases=1 model=8 ZIPV=[0.5 0 0.5 1 0 0] Kv=0.127 kW=4.0 PF= 0.92 conn=wye
! Tranformador de Distribuicao: F13822
New Load.5762086 Bus1=107071B1F13822.2.0 Phases=1 model=8 ZIPV=[0.5 0 0.5 1 0 0] Kv=0.127 kW=6.0 PF= 0.92 conn=wye
! Tranformador de Distribuicao: F13822
New Load.5774872 Bus1=107071B1F13822.1.2.0 Phases=2 model=8 ZIPV=[0.5 0 0.5 1 0 0] Kv=0.220 kW=14.47 PF= 0.92 conn=wye
! Tranformador de Distribuicao: F13822
New Load.5803242 Bus1=107071B1F13822.1.2.0 Phases=2 model=8 ZIPV=[0.5 0 0.5 1 0 0] Kv=0.220 kW=14.47 PF= 0.92 conn=wye
! Tranformador de Distribuicao: F13822
New Load.5870688 Bus1=107071B1F13822.2.0 Phases=1 model=8 ZIPV=[0.5 0 0.5 1 0 0] Kv=0.127 kW=1.0 PF= 0.92 conn=wye
! Tranformador de Distribuicao: F13822
New Load.5925963 Bus1=107071B1F13822.3.0 Phases=1 model=8 ZIPV=[0.5 0 0.5 1 0 0] Kv=0.127 kW=3.0 PF= 0.92 conn=wye
! Tranformador de Distribuicao: F13822
New Load.6002329 Bus1=107071B1F13822.1.0 Phases=1 model=8 ZIPV=[0.5 0 0.5 1 0 0] Kv=0.127 kW=2.0 PF= 0.92 conn=wye
! Tranformador de Distribuicao: F13822
New Load.6280739 Bus1=107071B1F13822.1.0 Phases=1 model=8 ZIPV=[0.5 0 0.5 1 0 0] Kv=0.127 kW=2.5 PF= 0.92 conn=wye
! Tranformador de Distribuicao: F15272
New Load.98320 Bus1=106792B1F15272.3.0 Phases=1 model=8 ZIPV=[0.5 0 0.5 1 0 0] Kv=0.127 kW=2.17 PF= 0.92 conn=wye
! Tranformador de Distribuicao: F15272
New Load.143568 Bus1=106792B1F15272.2.0 Phases=1 model=8 ZIPV=[0.5 0 0.5 1 0 0] Kv=0.127 kW=2.64 PF= 0.92 conn=wye
! Tranformador de Distribuicao: F15272
New Load.176768 Bus1=106792B1F15272.1.0 Phases=1 model=8 ZIPV=[0.5 0 0.5 1 0 0] Kv=0.127 kW=9.47 PF= 0.92 conn=wye
! Tranformador de Distribuicao: F15272
New Load.188807 Bus1=106792B1F15272.3.0 Phases=1 model=8 ZIPV=[0.5 0 0.5 1 0 0] Kv=0.127 kW=1.82 PF= 0.92 conn=wye
! Tranformador de Distribuicao: F15272
New Load.403688 Bus1=106792B1F15272.2.0 Phases=1 model=8 ZIPV=[0.5 0 0.5 1 0 0] Kv=0.127 kW=0.6 PF= 0.92 conn=wye
! Tranformador de Distribuicao: F15272
New Load.483817 Bus1=106792B1F15272.1.0 Phases=1 model=8 ZIPV=[0.5 0 0.5 1 0 0] Kv=0.127 kW=2.09 PF= 0.92 conn=wye
! Tranformador de Distribuicao: F15272
New Load.495278 Bus1=106792B1F15272.3.0 Phases=1 model=8 ZIPV=[0.5 0 0.5 1 0 0] Kv=0.127 kW=3.0 PF= 0.92 conn=wye
! Tranformador de Distribuicao: F15272
New Load.502975 Bus1=106792B1F15272.1.0 Phases=1 model=8 ZIPV=[0.5 0 0.5 1 0 0] Kv=0.127 kW=1.46 PF= 0.92 conn=wye
! Tranformador de Distribuicao: F15272
New Load.561539 Bus1=106792B1F15272.3.0 Phases=1 model=8 ZIPV=[0.5 0 0.5 1 0 0] Kv=0.127 kW=2.0 PF= 0.92 conn=wye
! Tranformador de Distribuicao: F15272
New Load.732714 Bus1=106792B1F15272.2.0 Phases=1 model=8 ZIPV=[0.5 0 0.5 1 0 0] Kv=0.127 kW=5.95 PF= 0.92 conn=wye
! Tranformador de Distribuicao: F15272
New Load.736117 Bus1=106792B1F15272.1.0 Phases=1 model=8 ZIPV=[0.5 0 0.5 1 0 0] Kv=0.127 kW=2.16 PF= 0.92 conn=wye
! Tranformador de Distribuicao: F15272
New Load.777899 Bus1=106792B1F15272.3.0 Phases=1 model=8 ZIPV=[0.5 0 0.5 1 0 0] Kv=0.127 kW=3.74 PF= 0.92 conn=wye
! Tranformador de Distribuicao: F15272
New Load.802331 Bus1=106792B1F15272.3.0 Phases=1 model=8 ZIPV=[0.5 0 0.5 1 0 0] Kv=0.220 kW=12.91 PF= 0.92 conn=wye
! Tranformador de Distribuicao: F15272
New Load.896157 Bus1=106792B1F15272.1.0 Phases=1 model=8 ZIPV=[0.5 0 0.5 1 0 0] Kv=0.127 kW=2.5 PF= 0.92 conn=wye
! Tranformador de Distribuicao: F15272
New Load.1000540 Bus1=106792B1F15272.1.0 Phases=1 model=8 ZIPV=[0.5 0 0.5 1 0 0] Kv=0.127 kW=2.29 PF= 0.92 conn=wye
! Tranformador de Distribuicao: F15272
New Load.1018131 Bus1=106792B1F15272.2.3.0 Phases=2 model=8 ZIPV=[0.5 0 0.5 1 0 0] Kv=0.220 kW=11.3 PF= 0.92 conn=wye
! Tranformador de Distribuicao: F15272
New Load.1219979 Bus1=106792B1F15272.1.2.3.0 Phases=3 model=8 ZIPV=[0.5 0 0.5 1 0 0] Kv=0.220 kW=2.0 PF= 0.92 conn=wye
! Tranformador de Distribuicao: F15272
New Load.1266043 Bus1=106792B1F15272.3.0 Phases=1 model=8 ZIPV=[0.5 0 0.5 1 0 0] Kv=0.127 kW=2.0 PF= 0.92 conn=wye
! Tranformador de Distribuicao: F15272
New Load.1315498 Bus1=106792B1F15272.2.0 Phases=1 model=8 ZIPV=[0.5 0 0.5 1 0 0] Kv=0.127 kW=2.0 PF= 0.92 conn=wye
! Tranformador de Distribuicao: F15272
New Load.1348407 Bus1=106792B1F15272.1.0 Phases=1 model=8 ZIPV=[0.5 0 0.5 1 0 0] Kv=0.127 kW=3.5 PF= 0.92 conn=wye
! Tranformador de Distribuicao: F15272
New Load.1374520 Bus1=106792B1F15272.3.0 Phases=1 model=8 ZIPV=[0.5 0 0.5 1 0 0] Kv=0.127 kW=2.0 PF= 0.92 conn=wye
! Tranformador de Distribuicao: F15272
New Load.1388223 Bus1=106792B1F15272.3.0 Phases=1 model=8 ZIPV=[0.5 0 0.5 1 0 0] Kv=0.127 kW=2.0 PF= 0.92 conn=wye
! Tranformador de Distribuicao: F15272
New Load.1493834 Bus1=106792B1F15272.1.0 Phases=1 model=8 ZIPV=[0.5 0 0.5 1 0 0] Kv=0.127 kW=2.0 PF= 0.92 conn=wye
! Tranformador de Distribuicao: F15272
New Load.1666763 Bus1=106792B1F15272.1.0 Phases=1 model=8 ZIPV=[0.5 0 0.5 1 0 0] Kv=0.127 kW=1.0 PF= 0.92 conn=wye
! Tranformador de Distribuicao: F15272
New Load.1766727 Bus1=106792B1F15272.2.0 Phases=1 model=8 ZIPV=[0.5 0 0.5 1 0 0] Kv=0.127 kW=1.0 PF= 0.92 conn=wye
! Tranformador de Distribuicao: F15272
New Load.1800396 Bus1=106792B1F15272.1.0 Phases=1 model=8 ZIPV=[0.5 0 0.5 1 0 0] Kv=0.127 kW=2.0 PF= 0.92 conn=wye
! Tranformador de Distribuicao: F15272
New Load.1819114 Bus1=106792B1F15272.3.0 Phases=1 model=8 ZIPV=[0.5 0 0.5 1 0 0] Kv=0.127 kW=5.0 PF= 0.92 conn=wye
! Tranformador de Distribuicao: F15272
New Load.1876953 Bus1=106792B1F15272.3.0 Phases=1 model=8 ZIPV=[0.5 0 0.5 1 0 0] Kv=0.127 kW=3.8 PF= 0.92 conn=wye
! Tranformador de Distribuicao: F15272
New Load.1957864 Bus1=106792B1F15272.2.0 Phases=1 model=8 ZIPV=[0.5 0 0.5 1 0 0] Kv=0.127 kW=1.0 PF= 0.92 conn=wye
! Tranformador de Distribuicao: F15272
New Load.1972856 Bus1=106792B1F15272.2.0 Phases=1 model=8 ZIPV=[0.5 0 0.5 1 0 0] Kv=0.127 kW=1.0 PF= 0.92 conn=wye
! Tranformador de Distribuicao: F15272
New Load.1982331 Bus1=106792B1F15272.2.0 Phases=1 model=8 ZIPV=[0.5 0 0.5 1 0 0] Kv=0.127 kW=2.58 PF= 0.92 conn=wye
! Tranformador de Distribuicao: F15272
New Load.2019617 Bus1=106792B1F15272.3.0 Phases=1 model=8 ZIPV=[0.5 0 0.5 1 0 0] Kv=0.127 kW=1.0 PF= 0.92 conn=wye
! Tranformador de Distribuicao: F15272
New Load.2032861 Bus1=106792B1F15272.1.0 Phases=1 model=8 ZIPV=[0.5 0 0.5 1 0 0] Kv=0.127 kW=1.0 PF= 0.92 conn=wye
! Tranformador de Distribuicao: F15272
New Load.2159964 Bus1=106792B1F15272.1.2.0 Phases=2 model=8 ZIPV=[0.5 0 0.5 1 0 0] Kv=0.220 kW=7.0 PF= 0.92 conn=wye
! Tranformador de Distribuicao: F15272
New Load.2240386 Bus1=106792B1F15272.1.0 Phases=1 model=8 ZIPV=[0.5 0 0.5 1 0 0] Kv=0.127 kW=1.0 PF= 0.92 conn=wye
! Tranformador de Distribuicao: F15272
New Load.2247802 Bus1=106792B1F15272.2.0 Phases=1 model=8 ZIPV=[0.5 0 0.5 1 0 0] Kv=0.127 kW=1.0 PF= 0.92 conn=wye
! Tranformador de Distribuicao: F15272
New Load.2263009 Bus1=106792B1F15272.2.0 Phases=1 model=8 ZIPV=[0.5 0 0.5 1 0 0] Kv=0.127 kW=2.0 PF= 0.92 conn=wye
! Tranformador de Distribuicao: F15272
New Load.2315397 Bus1=106792B1F15272.3.0 Phases=1 model=8 ZIPV=[0.5 0 0.5 1 0 0] Kv=0.127 kW=1.74 PF= 0.92 conn=wye
! Tranformador de Distribuicao: F15272
New Load.2345201 Bus1=106792B1F15272.1.0 Phases=1 model=8 ZIPV=[0.5 0 0.5 1 0 0] Kv=0.127 kW=2.64 PF= 0.92 conn=wye
! Tranformador de Distribuicao: F15272
New Load.2375697 Bus1=106792B1F15272.3.0 Phases=1 model=8 ZIPV=[0.5 0 0.5 1 0 0] Kv=0.127 kW=1.0 PF= 0.92 conn=wye
! Tranformador de Distribuicao: F15272
New Load.2378563 Bus1=106792B1F15272.2.0 Phases=1 model=8 ZIPV=[0.5 0 0.5 1 0 0] Kv=0.127 kW=1.0 PF= 0.92 conn=wye
! Tranformador de Distribuicao: F15272
New Load.2409202 Bus1=106792B1F15272.2.0 Phases=1 model=8 ZIPV=[0.5 0 0.5 1 0 0] Kv=0.127 kW=3.5 PF= 0.92 conn=wye
! Tranformador de Distribuicao: F15272
New Load.2450824 Bus1=106792B1F15272.3.0 Phases=1 model=8 ZIPV=[0.5 0 0.5 1 0 0] Kv=0.127 kW=2.12 PF= 0.92 conn=wye
! Tranformador de Distribuicao: F15272
New Load.2499081 Bus1=106792B1F15272.1.0 Phases=1 model=8 ZIPV=[0.5 0 0.5 1 0 0] Kv=0.127 kW=1.0 PF= 0.92 conn=wye
! Tranformador de Distribuicao: F15272
New Load.2543561 Bus1=106792B1F15272.1.0 Phases=1 model=8 ZIPV=[0.5 0 0.5 1 0 0] Kv=0.127 kW=4.08 PF= 0.92 conn=wye
! Tranformador de Distribuicao: F15272
New Load.2743858 Bus1=106792B1F15272.1.2.0 Phases=2 model=8 ZIPV=[0.5 0 0.5 1 0 0] Kv=0.220 kW=1.0 PF= 0.92 conn=wye
! Tranformador de Distribuicao: F15272
New Load.2763555 Bus1=106792B1F15272.3.0 Phases=1 model=8 ZIPV=[0.5 0 0.5 1 0 0] Kv=0.127 kW=3.5 PF= 0.92 conn=wye
! Tranformador de Distribuicao: F15272
New Load.2813563 Bus1=106792B1F15272.2.0 Phases=1 model=8 ZIPV=[0.5 0 0.5 1 0 0] Kv=0.127 kW=2.04 PF= 0.92 conn=wye
! Tranformador de Distribuicao: F15272
New Load.2844603 Bus1=106792B1F15272.2.0 Phases=1 model=8 ZIPV=[0.5 0 0.5 1 0 0] Kv=0.127 kW=2.0 PF= 0.92 conn=wye
! Tranformador de Distribuicao: F15272
New Load.2908375 Bus1=106792B1F15272.1.0 Phases=1 model=8 ZIPV=[0.5 0 0.5 1 0 0] Kv=0.127 kW=2.0 PF= 0.92 conn=wye
! Tranformador de Distribuicao: F15272
New Load.2909756 Bus1=106792B1F15272.1.0 Phases=1 model=8 ZIPV=[0.5 0 0.5 1 0 0] Kv=0.127 kW=1.0 PF= 0.92 conn=wye
! Tranformador de Distribuicao: F15272
New Load.2948562 Bus1=106792B1F15272.1.0 Phases=1 model=8 ZIPV=[0.5 0 0.5 1 0 0] Kv=0.127 kW=1.0 PF= 0.92 conn=wye
! Tranformador de Distribuicao: F15272
New Load.2953461 Bus1=106792B1F15272.2.3.0 Phases=2 model=8 ZIPV=[0.5 0 0.5 1 0 0] Kv=0.220 kW=5.22 PF= 0.92 conn=wye
! Tranformador de Distribuicao: F15272
New Load.2966084 Bus1=106792B1F15272.2.0 Phases=1 model=8 ZIPV=[0.5 0 0.5 1 0 0] Kv=0.127 kW=1.74 PF= 0.92 conn=wye
! Tranformador de Distribuicao: F15272
New Load.2992320 Bus1=106792B1F15272.3.0 Phases=1 model=8 ZIPV=[0.5 0 0.5 1 0 0] Kv=0.127 kW=2.09 PF= 0.92 conn=wye
! Tranformador de Distribuicao: F15272
New Load.3058460 Bus1=106792B1F15272.3.0 Phases=1 model=8 ZIPV=[0.5 0 0.5 1 0 0] Kv=0.127 kW=2.15 PF= 0.92 conn=wye
! Tranformador de Distribuicao: F15272
New Load.3099614 Bus1=106792B1F15272.1.0 Phases=1 model=8 ZIPV=[0.5 0 0.5 1 0 0] Kv=0.127 kW=2.19 PF= 0.92 conn=wye
! Tranformador de Distribuicao: F15272
New Load.3108811 Bus1=106792B1F15272.1.0 Phases=1 model=8 ZIPV=[0.5 0 0.5 1 0 0] Kv=0.127 kW=1.0 PF= 0.92 conn=wye
! Tranformador de Distribuicao: F15272
New Load.3117287 Bus1=106792B1F15272.2.0 Phases=1 model=8 ZIPV=[0.5 0 0.5 1 0 0] Kv=0.127 kW=1.67 PF= 0.92 conn=wye
! Tranformador de Distribuicao: F15272
New Load.3126969 Bus1=106792B1F15272.2.0 Phases=1 model=8 ZIPV=[0.5 0 0.5 1 0 0] Kv=0.127 kW=6.78 PF= 0.92 conn=wye
! Tranformador de Distribuicao: F15272
New Load.3129899 Bus1=106792B1F15272.3.0 Phases=1 model=8 ZIPV=[0.5 0 0.5 1 0 0] Kv=0.127 kW=1.0 PF= 0.92 conn=wye
! Tranformador de Distribuicao: F15272
New Load.3139847 Bus1=106792B1F15272.3.0 Phases=1 model=8 ZIPV=[0.5 0 0.5 1 0 0] Kv=0.127 kW=1.54 PF= 0.92 conn=wye
! Tranformador de Distribuicao: F15272
New Load.3213250 Bus1=106792B1F15272.2.0 Phases=1 model=8 ZIPV=[0.5 0 0.5 1 0 0] Kv=0.127 kW=1.8 PF= 0.92 conn=wye
! Tranformador de Distribuicao: F15272
New Load.3225777 Bus1=106792B1F15272.3.0 Phases=1 model=8 ZIPV=[0.5 0 0.5 1 0 0] Kv=0.127 kW=2.0 PF= 0.92 conn=wye
! Tranformador de Distribuicao: F15272
New Load.3236865 Bus1=106792B1F15272.3.0 Phases=1 model=8 ZIPV=[0.5 0 0.5 1 0 0] Kv=0.127 kW=1.0 PF= 0.92 conn=wye
! Tranformador de Distribuicao: F15272
New Load.3242530 Bus1=106792B1F15272.3.0 Phases=1 model=8 ZIPV=[0.5 0 0.5 1 0 0] Kv=0.127 kW=5.75 PF= 0.92 conn=wye
! Tranformador de Distribuicao: F15272
New Load.3342532 Bus1=106792B1F15272.1.0 Phases=1 model=8 ZIPV=[0.5 0 0.5 1 0 0] Kv=0.127 kW=0.8 PF= 0.92 conn=wye
! Tranformador de Distribuicao: F15272
New Load.3484542 Bus1=106792B1F15272.1.2.0 Phases=2 model=8 ZIPV=[0.5 0 0.5 1 0 0] Kv=0.220 kW=8.04 PF= 0.92 conn=wye
! Tranformador de Distribuicao: F15272
New Load.3515939 Bus1=106792B1F15272.3.0 Phases=1 model=8 ZIPV=[0.5 0 0.5 1 0 0] Kv=0.127 kW=2.5 PF= 0.92 conn=wye
! Tranformador de Distribuicao: F15272
New Load.3545828 Bus1=106792B1F15272.1.0 Phases=1 model=8 ZIPV=[0.5 0 0.5 1 0 0] Kv=0.127 kW=5.0 PF= 0.92 conn=wye
! Tranformador de Distribuicao: F15272
New Load.3549722 Bus1=106792B1F15272.1.2.3.0 Phases=3 model=8 ZIPV=[0.5 0 0.5 1 0 0] Kv=0.127 kW=0.2 PF= 0.92 conn=wye
! Tranformador de Distribuicao: F15272
New Load.3568306 Bus1=106792B1F15272.2.0 Phases=1 model=8 ZIPV=[0.5 0 0.5 1 0 0] Kv=0.127 kW=4.0 PF= 0.92 conn=wye
! Tranformador de Distribuicao: F15272
New Load.3587112 Bus1=106792B1F15272.3.0 Phases=1 model=8 ZIPV=[0.5 0 0.5 1 0 0] Kv=0.127 kW=3.0 PF= 0.92 conn=wye
! Tranformador de Distribuicao: F15272
New Load.3697958 Bus1=106792B1F15272.1.0 Phases=1 model=8 ZIPV=[0.5 0 0.5 1 0 0] Kv=0.127 kW=3.0 PF= 0.92 conn=wye
! Tranformador de Distribuicao: F15272
New Load.3703049 Bus1=106792B1F15272.1.0 Phases=1 model=8 ZIPV=[0.5 0 0.5 1 0 0] Kv=0.127 kW=6.58 PF= 0.92 conn=wye
! Tranformador de Distribuicao: F15272
New Load.3798153 Bus1=106792B1F15272.1.0 Phases=1 model=8 ZIPV=[0.5 0 0.5 1 0 0] Kv=0.127 kW=1.0 PF= 0.92 conn=wye
! Tranformador de Distribuicao: F15272
New Load.3890660 Bus1=106792B1F15272.2.0 Phases=1 model=8 ZIPV=[0.5 0 0.5 1 0 0] Kv=0.127 kW=5.12 PF= 0.92 conn=wye
! Tranformador de Distribuicao: F15272
New Load.4062645 Bus1=106792B1F15272.1.0 Phases=1 model=8 ZIPV=[0.5 0 0.5 1 0 0] Kv=0.127 kW=1.44 PF= 0.92 conn=wye
! Tranformador de Distribuicao: F15272
New Load.4100120 Bus1=106792B1F15272.2.0 Phases=1 model=8 ZIPV=[0.5 0 0.5 1 0 0] Kv=0.127 kW=2.41 PF= 0.92 conn=wye
! Tranformador de Distribuicao: F15272
New Load.4188963 Bus1=106792B1F15272.1.0 Phases=1 model=8 ZIPV=[0.5 0 0.5 1 0 0] Kv=0.127 kW=3.4 PF= 0.92 conn=wye
! Tranformador de Distribuicao: F15272
New Load.4233354 Bus1=106792B1F15272.3.0 Phases=1 model=8 ZIPV=[0.5 0 0.5 1 0 0] Kv=0.127 kW=3.5 PF= 0.92 conn=wye
! Tranformador de Distribuicao: F15272
New Load.4281743 Bus1=106792B1F15272.2.0 Phases=1 model=8 ZIPV=[0.5 0 0.5 1 0 0] Kv=0.127 kW=1.59 PF= 0.92 conn=wye
! Tranformador de Distribuicao: F15272
New Load.4285206 Bus1=106792B1F15272.1.0 Phases=1 model=8 ZIPV=[0.5 0 0.5 1 0 0] Kv=0.127 kW=1.5 PF= 0.92 conn=wye
! Tranformador de Distribuicao: F15272
New Load.4320098 Bus1=106792B1F15272.1.0 Phases=1 model=8 ZIPV=[0.5 0 0.5 1 0 0] Kv=0.127 kW=6.73 PF= 0.92 conn=wye
! Tranformador de Distribuicao: F15272
New Load.4337042 Bus1=106792B1F15272.2.0 Phases=1 model=8 ZIPV=[0.5 0 0.5 1 0 0] Kv=0.127 kW=1.0 PF= 0.92 conn=wye
! Tranformador de Distribuicao: F15272
New Load.4370958 Bus1=106792B1F15272.3.0 Phases=1 model=8 ZIPV=[0.5 0 0.5 1 0 0] Kv=0.127 kW=1.0 PF= 0.92 conn=wye
! Tranformador de Distribuicao: F15272
New Load.4387963 Bus1=106792B1F15272.2.0 Phases=1 model=8 ZIPV=[0.5 0 0.5 1 0 0] Kv=0.127 kW=2.0 PF= 0.92 conn=wye
! Tranformador de Distribuicao: F15272
New Load.4429410 Bus1=106792B1F15272.1.2.0 Phases=2 model=8 ZIPV=[0.5 0 0.5 1 0 0] Kv=0.220 kW=5.44 PF= 0.92 conn=wye
! Tranformador de Distribuicao: F15272
New Load.4436374 Bus1=106792B1F15272.1.0 Phases=1 model=8 ZIPV=[0.5 0 0.5 1 0 0] Kv=0.127 kW=1.0 PF= 0.92 conn=wye
! Tranformador de Distribuicao: F15272
New Load.4542179 Bus1=106792B1F15272.3.1.0 Phases=2 model=8 ZIPV=[0.5 0 0.5 1 0 0] Kv=0.220 kW=4.14 PF= 0.92 conn=wye
! Tranformador de Distribuicao: F15272
New Load.4693924 Bus1=106792B1F15272.2.0 Phases=1 model=8 ZIPV=[0.5 0 0.5 1 0 0] Kv=0.127 kW=3.0 PF= 0.92 conn=wye
! Tranformador de Distribuicao: F15272
New Load.4738930 Bus1=106792B1F15272.2.0 Phases=1 model=8 ZIPV=[0.5 0 0.5 1 0 0] Kv=0.127 kW=3.9 PF= 0.92 conn=wye
! Tranformador de Distribuicao: F15272
New Load.4752522 Bus1=106792B1F15272.2.0 Phases=1 model=8 ZIPV=[0.5 0 0.5 1 0 0] Kv=0.127 kW=3.0 PF= 0.92 conn=wye
! Tranformador de Distribuicao: F15272
New Load.4754460 Bus1=106792B1F15272.3.0 Phases=1 model=8 ZIPV=[0.5 0 0.5 1 0 0] Kv=0.127 kW=2.0 PF= 0.92 conn=wye
! Tranformador de Distribuicao: F15272
New Load.4763837 Bus1=106792B1F15272.1.0 Phases=1 model=8 ZIPV=[0.5 0 0.5 1 0 0] Kv=0.127 kW=4.47 PF= 0.92 conn=wye
! Tranformador de Distribuicao: F15272
New Load.4823530 Bus1=106792B1F15272.2.0 Phases=1 model=8 ZIPV=[0.5 0 0.5 1 0 0] Kv=0.127 kW=0.6 PF= 0.92 conn=wye
! Tranformador de Distribuicao: F15272
New Load.4881852 Bus1=106792B1F15272.2.0 Phases=1 model=8 ZIPV=[0.5 0 0.5 1 0 0] Kv=0.127 kW=1.0 PF= 0.92 conn=wye
! Tranformador de Distribuicao: F15272
New Load.4896338 Bus1=106792B1F15272.1.0 Phases=1 model=8 ZIPV=[0.5 0 0.5 1 0 0] Kv=0.127 kW=1.0 PF= 0.92 conn=wye
! Tranformador de Distribuicao: F15272
New Load.4924211 Bus1=106792B1F15272.1.0 Phases=1 model=8 ZIPV=[0.5 0 0.5 1 0 0] Kv=0.127 kW=1.32 PF= 0.92 conn=wye
! Tranformador de Distribuicao: F15272
New Load.4975781 Bus1=106792B1F15272.1.2.0 Phases=2 model=8 ZIPV=[0.5 0 0.5 1 0 0] Kv=0.220 kW=3.0 PF= 0.92 conn=wye
! Tranformador de Distribuicao: F15272
New Load.5002341 Bus1=106792B1F15272.1.0 Phases=1 model=8 ZIPV=[0.5 0 0.5 1 0 0] Kv=0.127 kW=2.0 PF= 0.92 conn=wye
! Tranformador de Distribuicao: F15272
New Load.5112212 Bus1=106792B1F15272.2.0 Phases=1 model=8 ZIPV=[0.5 0 0.5 1 0 0] Kv=0.127 kW=3.0 PF= 0.92 conn=wye
! Tranformador de Distribuicao: F15272
New Load.5234510 Bus1=106792B1F15272.2.3.0 Phases=2 model=8 ZIPV=[0.5 0 0.5 1 0 0] Kv=0.220 kW=6.88 PF= 0.92 conn=wye
! Tranformador de Distribuicao: F15272
New Load.5296530 Bus1=106792B1F15272.1.0 Phases=1 model=8 ZIPV=[0.5 0 0.5 1 0 0] Kv=0.127 kW=1.54 PF= 0.92 conn=wye
! Tranformador de Distribuicao: F15272
New Load.5298087 Bus1=106792B1F15272.1.0 Phases=1 model=8 ZIPV=[0.5 0 0.5 1 0 0] Kv=0.127 kW=3.0 PF= 0.92 conn=wye
! Tranformador de Distribuicao: F15272
New Load.5329962 Bus1=106792B1F15272.1.2.0 Phases=2 model=8 ZIPV=[0.5 0 0.5 1 0 0] Kv=0.220 kW=1.41 PF= 0.92 conn=wye
! Tranformador de Distribuicao: F15272
New Load.5381020 Bus1=106792B1F15272.1.0 Phases=1 model=8 ZIPV=[0.5 0 0.5 1 0 0] Kv=0.127 kW=6.78 PF= 0.92 conn=wye
! Tranformador de Distribuicao: F15272
New Load.5434592 Bus1=106792B1F15272.1.0 Phases=1 model=8 ZIPV=[0.5 0 0.5 1 0 0] Kv=0.127 kW=2.0 PF= 0.92 conn=wye
! Tranformador de Distribuicao: F15272
New Load.5435211 Bus1=106792B1F15272.3.0 Phases=1 model=8 ZIPV=[0.5 0 0.5 1 0 0] Kv=0.127 kW=2.0 PF= 0.92 conn=wye
! Tranformador de Distribuicao: F15272
New Load.5437007 Bus1=106792B1F15272.1.0 Phases=1 model=8 ZIPV=[0.5 0 0.5 1 0 0] Kv=0.127 kW=1.9 PF= 0.92 conn=wye
! Tranformador de Distribuicao: F15272
New Load.5586282 Bus1=106792B1F15272.2.0 Phases=1 model=8 ZIPV=[0.5 0 0.5 1 0 0] Kv=0.127 kW=1.2 PF= 0.92 conn=wye
! Tranformador de Distribuicao: F15272
New Load.5668036 Bus1=106792B1F15272.1.0 Phases=1 model=8 ZIPV=[0.5 0 0.5 1 0 0] Kv=0.127 kW=2.0 PF= 0.92 conn=wye