New Circuit.CABIMB  basekv=69.000  pu=1.03  phase=3  bus1=CABIMB  MVAsc3=10000000000000000000000  MVAsc1=1000000000000000000000